2018-02-28 00:55:56: case.setup starting 
 ---------------------------------------------------
2018-02-28 00:55:58: case.setup success 
 ---------------------------------------------------
2018-02-28 00:56:13: case.build starting 
 ---------------------------------------------------
2018-02-28 01:01:03: case.build success 
 ---------------------------------------------------
2018-02-28 01:02:50: case.submit starting 
 ---------------------------------------------------
2018-02-28 01:02:56: case.submit success 
 ---------------------------------------------------
2018-02-28 01:03:07: case.run starting 
 ---------------------------------------------------
2018-02-28 01:05:44: case.run error 
ERROR: RUN FAIL: Command 'mpiexec_mpt  -np 1 -p "%g:"  omplace -tm open64  /glade/scratch/lfjiang/1x1ptnumaIA_test_crop/bld/cesm.exe  >> cesm.log.$LID 2>&1 ' failed
See log file for details: /glade/scratch/lfjiang/1x1ptnumaIA_test_crop/run/cesm.log.180228-010307
 ---------------------------------------------------
2018-02-28 01:09:44: case.build starting 
 ---------------------------------------------------
2018-02-28 01:11:34: case.build success 
 ---------------------------------------------------
2018-02-28 01:11:34: case.submit starting 
 ---------------------------------------------------
2018-02-28 01:11:40: case.submit success 
 ---------------------------------------------------
2018-02-28 01:11:44: case.run starting 
 ---------------------------------------------------
2018-02-28 01:14:10: case.run error 
ERROR: RUN FAIL: Command 'mpiexec_mpt  -np 1 -p "%g:"  omplace -tm open64  /glade/scratch/lfjiang/1x1ptnumaIA_test_crop/bld/cesm.exe  >> cesm.log.$LID 2>&1 ' failed
See log file for details: /glade/scratch/lfjiang/1x1ptnumaIA_test_crop/run/cesm.log.180228-011144
 ---------------------------------------------------
2018-02-28 01:23:05: case.build starting 
 ---------------------------------------------------
2018-02-28 01:24:49: case.build success 
 ---------------------------------------------------
2018-02-28 01:24:50: case.submit starting 
 ---------------------------------------------------
2018-02-28 01:24:54: case.submit success 
 ---------------------------------------------------
2018-02-28 01:24:58: case.run starting 
 ---------------------------------------------------
2018-02-28 01:27:21: case.run error 
ERROR: RUN FAIL: Command 'mpiexec_mpt  -np 1 -p "%g:"  omplace -tm open64  /glade/scratch/lfjiang/1x1ptnumaIA_test_crop/bld/cesm.exe  >> cesm.log.$LID 2>&1 ' failed
See log file for details: /glade/scratch/lfjiang/1x1ptnumaIA_test_crop/run/cesm.log.180228-012458
 ---------------------------------------------------
2018-02-28 01:29:59: case.submit starting 
 ---------------------------------------------------
2018-02-28 01:30:06: case.submit success 
 ---------------------------------------------------
2018-02-28 01:30:11: case.run starting 
 ---------------------------------------------------
2018-02-28 01:32:45: case.run error 
ERROR: RUN FAIL: Command 'mpiexec_mpt  -np 1 -p "%g:"  omplace -tm open64  /glade/scratch/lfjiang/1x1ptnumaIA_test_crop/bld/cesm.exe  >> cesm.log.$LID 2>&1 ' failed
See log file for details: /glade/scratch/lfjiang/1x1ptnumaIA_test_crop/run/cesm.log.180228-013011
 ---------------------------------------------------
2018-02-28 01:49:20: case.build starting 
 ---------------------------------------------------
2018-02-28 01:51:03: case.build success 
 ---------------------------------------------------
2018-02-28 01:51:03: case.submit starting 
 ---------------------------------------------------
2018-02-28 01:51:11: case.submit success 
 ---------------------------------------------------
2018-02-28 01:51:27: case.run starting 
 ---------------------------------------------------
2018-02-28 01:54:04: case.run error 
ERROR: RUN FAIL: Command 'mpiexec_mpt  -np 1 -p "%g:"  omplace -tm open64  /glade/scratch/lfjiang/1x1ptnumaIA_test_crop/bld/cesm.exe  >> cesm.log.$LID 2>&1 ' failed
See log file for details: /glade/scratch/lfjiang/1x1ptnumaIA_test_crop/run/cesm.log.180228-015127
 ---------------------------------------------------
2018-02-28 01:58:35: case.build starting 
 ---------------------------------------------------
2018-02-28 01:59:35: case.build success 
 ---------------------------------------------------
2018-02-28 01:59:35: case.submit starting 
 ---------------------------------------------------
2018-02-28 01:59:40: case.submit success 
 ---------------------------------------------------
2018-02-28 01:59:44: case.run starting 
 ---------------------------------------------------
2018-02-28 02:02:21: case.run error 
ERROR: RUN FAIL: Command 'mpiexec_mpt  -np 1 -p "%g:"  omplace -tm open64  /glade/scratch/lfjiang/1x1ptnumaIA_test_crop/bld/cesm.exe  >> cesm.log.$LID 2>&1 ' failed
See log file for details: /glade/scratch/lfjiang/1x1ptnumaIA_test_crop/run/cesm.log.180228-015944
 ---------------------------------------------------
2018-02-28 03:23:03: case.build starting 
 ---------------------------------------------------
2018-02-28 03:23:18: case.build error 
ERROR: BUILD FAIL: clm.buildlib failed, cat /glade/scratch/lfjiang/1x1ptnumaIA_test_crop/bld/lnd.bldlog.180228-032303
 ---------------------------------------------------
2018-02-28 03:28:32: case.build starting 
 ---------------------------------------------------
2018-02-28 03:28:33: case.build error 
ERROR: 
ERROR env_build HAS CHANGED
  A manual clean of your obj directories is required
  You should execute the following:
    ./case.build --clean-all

 ---------------------------------------------------
2018-02-28 03:28:36: build.clean starting 
 ---------------------------------------------------
2018-02-28 03:28:38: build.clean success 
 ---------------------------------------------------
2018-02-28 03:28:41: case.build starting 
 ---------------------------------------------------
2018-02-28 03:32:31: case.build error 
ERROR: BUILD FAIL: clm.buildlib failed, cat /glade/scratch/lfjiang/1x1ptnumaIA_test_crop/bld/lnd.bldlog.180228-032841
 ---------------------------------------------------
2018-02-28 03:39:51: case.build starting 
 ---------------------------------------------------
2018-02-28 03:41:06: case.build success 
 ---------------------------------------------------
2018-02-28 03:41:52: case.submit starting 
 ---------------------------------------------------
2018-02-28 03:41:57: case.submit success 
 ---------------------------------------------------
2018-02-28 03:42:01: case.run starting 
 ---------------------------------------------------
2018-02-28 03:44:38: case.run error 
ERROR: RUN FAIL: Command 'mpiexec_mpt  -np 1 -p "%g:"  omplace -tm open64  /glade/scratch/lfjiang/1x1ptnumaIA_test_crop/bld/cesm.exe  >> cesm.log.$LID 2>&1 ' failed
See log file for details: /glade/scratch/lfjiang/1x1ptnumaIA_test_crop/run/cesm.log.180228-034201
 ---------------------------------------------------
2018-02-28 17:58:07: case.build starting 
 ---------------------------------------------------
2018-02-28 17:58:36: case.build error 
ERROR: BUILD FAIL: clm.buildlib failed, cat /glade/scratch/lfjiang/1x1ptnumaIA_test_crop/bld/lnd.bldlog.180228-175808
 ---------------------------------------------------
2018-02-28 17:58:36: case.submit starting 
 ---------------------------------------------------
2018-02-28 17:58:42: case.submit error 
ERROR: Build complete is not True please rebuild the model by calling case.build
 ---------------------------------------------------
2018-02-28 18:00:38: case.build starting 
 ---------------------------------------------------
2018-02-28 18:00:40: case.build error 
ERROR: 
ERROR env_build HAS CHANGED
  A manual clean of your obj directories is required
  You should execute the following:
    ./case.build --clean-all

 ---------------------------------------------------
2018-02-28 18:00:44: build.clean starting 
 ---------------------------------------------------
2018-02-28 18:00:46: build.clean success 
 ---------------------------------------------------
2018-02-28 18:02:12: case.build starting 
 ---------------------------------------------------
2018-02-28 18:06:08: case.build error 
ERROR: BUILD FAIL: clm.buildlib failed, cat /glade/scratch/lfjiang/1x1ptnumaIA_test_crop/bld/lnd.bldlog.180228-180212
 ---------------------------------------------------
2018-02-28 18:06:08: case.submit starting 
 ---------------------------------------------------
2018-02-28 18:06:13: case.submit error 
ERROR: Build complete is not True please rebuild the model by calling case.build
 ---------------------------------------------------
2018-02-28 18:06:56: case.build starting 
 ---------------------------------------------------
2018-02-28 18:08:12: case.build success 
 ---------------------------------------------------
2018-02-28 18:08:17: case.submit starting 
 ---------------------------------------------------
2018-02-28 18:08:23: case.submit success 
 ---------------------------------------------------
2018-02-28 18:08:30: case.run starting 
 ---------------------------------------------------
2018-02-28 18:10:42: case.run error 
ERROR: RUN FAIL: Command 'mpiexec_mpt  -np 1 -p "%g:"  omplace -tm open64  /glade/scratch/lfjiang/1x1ptnumaIA_test_crop/bld/cesm.exe  >> cesm.log.$LID 2>&1 ' failed
See log file for details: /glade/scratch/lfjiang/1x1ptnumaIA_test_crop/run/cesm.log.180228-180830
 ---------------------------------------------------
2018-03-01 11:52:54: case.build starting 
 ---------------------------------------------------
2018-03-01 11:54:03: case.build success 
 ---------------------------------------------------
2018-03-01 11:54:03: case.submit starting 
 ---------------------------------------------------
2018-03-01 11:54:12: case.submit success 
 ---------------------------------------------------
2018-03-01 11:54:32: case.run starting 
 ---------------------------------------------------
2018-03-01 11:56:45: case.run error 
ERROR: RUN FAIL: Command 'mpiexec_mpt  -np 1 -p "%g:"  omplace -tm open64  /glade/scratch/lfjiang/1x1ptnumaIA_test_crop/bld/cesm.exe  >> cesm.log.$LID 2>&1 ' failed
See log file for details: /glade/scratch/lfjiang/1x1ptnumaIA_test_crop/run/cesm.log.180301-115432
 ---------------------------------------------------
2018-03-01 15:09:07: case.build starting 
 ---------------------------------------------------
2018-03-01 15:10:20: case.build success 
 ---------------------------------------------------
2018-03-01 15:12:15: case.build starting 
 ---------------------------------------------------
2018-03-01 15:13:20: case.build success 
 ---------------------------------------------------
2018-03-01 15:13:21: case.submit starting 
 ---------------------------------------------------
2018-03-01 15:13:29: case.submit success 
 ---------------------------------------------------
2018-03-01 15:13:35: case.run starting 
 ---------------------------------------------------
2018-03-01 15:15:35: case.run error 
ERROR: RUN FAIL: Command 'mpiexec_mpt  -np 1 -p "%g:"  omplace -tm open64  /glade/scratch/lfjiang/1x1ptnumaIA_test_crop/bld/cesm.exe  >> cesm.log.$LID 2>&1 ' failed
See log file for details: /glade/scratch/lfjiang/1x1ptnumaIA_test_crop/run/cesm.log.180301-151335
 ---------------------------------------------------
2018-03-01 15:20:48: case.build starting 
 ---------------------------------------------------
2018-03-01 15:21:56: case.build success 
 ---------------------------------------------------
2018-03-01 15:22:00: case.submit starting 
 ---------------------------------------------------
2018-03-01 15:22:07: case.submit success 
 ---------------------------------------------------
2018-03-01 15:22:18: case.run starting 
 ---------------------------------------------------
2018-03-01 15:24:29: case.run error 
ERROR: RUN FAIL: Command 'mpiexec_mpt  -np 1 -p "%g:"  omplace -tm open64  /glade/scratch/lfjiang/1x1ptnumaIA_test_crop/bld/cesm.exe  >> cesm.log.$LID 2>&1 ' failed
See log file for details: /glade/scratch/lfjiang/1x1ptnumaIA_test_crop/run/cesm.log.180301-152217
 ---------------------------------------------------
2018-03-01 15:26:25: case.build starting 
 ---------------------------------------------------
2018-03-01 15:27:30: case.build success 
 ---------------------------------------------------
2018-03-01 15:27:30: case.submit starting 
 ---------------------------------------------------
2018-03-01 15:27:36: case.submit success 
 ---------------------------------------------------
2018-03-01 15:28:02: case.run starting 
 ---------------------------------------------------
2018-03-01 15:30:15: case.run error 
ERROR: RUN FAIL: Command 'mpiexec_mpt  -np 1 -p "%g:"  omplace -tm open64  /glade/scratch/lfjiang/1x1ptnumaIA_test_crop/bld/cesm.exe  >> cesm.log.$LID 2>&1 ' failed
See log file for details: /glade/scratch/lfjiang/1x1ptnumaIA_test_crop/run/cesm.log.180301-152801
 ---------------------------------------------------
2018-03-01 15:34:04: case.build starting 
 ---------------------------------------------------
2018-03-01 15:35:09: case.build success 
 ---------------------------------------------------
2018-03-01 15:35:10: case.submit starting 
 ---------------------------------------------------
2018-03-01 15:35:16: case.submit success 
 ---------------------------------------------------
2018-03-01 15:35:25: case.run starting 
 ---------------------------------------------------
2018-03-01 15:37:27: case.run error 
ERROR: RUN FAIL: Command 'mpiexec_mpt  -np 1 -p "%g:"  omplace -tm open64  /glade/scratch/lfjiang/1x1ptnumaIA_test_crop/bld/cesm.exe  >> cesm.log.$LID 2>&1 ' failed
See log file for details: /glade/scratch/lfjiang/1x1ptnumaIA_test_crop/run/cesm.log.180301-153525
 ---------------------------------------------------
2018-03-01 15:40:00: case.build starting 
 ---------------------------------------------------
2018-03-01 15:40:14: case.build error 
ERROR: BUILD FAIL: clm.buildlib failed, cat /glade/scratch/lfjiang/1x1ptnumaIA_test_crop/bld/lnd.bldlog.180301-154000
 ---------------------------------------------------
2018-03-01 15:40:28: case.build starting 
 ---------------------------------------------------
2018-03-01 15:40:29: case.build error 
ERROR: 
ERROR env_build HAS CHANGED
  A manual clean of your obj directories is required
  You should execute the following:
    ./case.build --clean-all

 ---------------------------------------------------
2018-03-01 15:40:34: build.clean starting 
 ---------------------------------------------------
2018-03-01 15:40:38: build.clean success 
 ---------------------------------------------------
2018-03-01 15:40:44: case.build starting 
 ---------------------------------------------------
2018-03-01 15:42:43: case.build error 
ERROR: BUILD FAIL: buildlib.pio failed, cat /glade/scratch/lfjiang/1x1ptnumaIA_test_crop/bld/pio.bldlog.180301-154045
 ---------------------------------------------------
2018-03-01 15:42:43: case.submit starting 
 ---------------------------------------------------
2018-03-01 15:42:50: case.submit error 
ERROR: Build complete is not True please rebuild the model by calling case.build
 ---------------------------------------------------
2018-03-01 15:44:27: case.build starting 
 ---------------------------------------------------
2018-03-01 15:47:48: case.build error 
ERROR: BUILD FAIL: sglc.buildlib failed, cat /glade/scratch/lfjiang/1x1ptnumaIA_test_crop/bld/glc.bldlog.180301-154428
BUILD FAIL: swav.buildlib failed, cat /glade/scratch/lfjiang/1x1ptnumaIA_test_crop/bld/wav.bldlog.180301-154428
 ---------------------------------------------------
2018-03-01 15:49:04: case.build starting 
 ---------------------------------------------------
2018-03-01 15:49:41: case.build success 
 ---------------------------------------------------
2018-03-01 15:49:48: case.submit starting 
 ---------------------------------------------------
2018-03-01 15:49:54: case.submit success 
 ---------------------------------------------------
2018-03-01 15:50:02: case.run starting 
 ---------------------------------------------------
2018-03-01 15:52:17: case.run error 
ERROR: RUN FAIL: Command 'mpiexec_mpt  -np 1 -p "%g:"  omplace -tm open64  /glade/scratch/lfjiang/1x1ptnumaIA_test_crop/bld/cesm.exe  >> cesm.log.$LID 2>&1 ' failed
See log file for details: /glade/scratch/lfjiang/1x1ptnumaIA_test_crop/run/cesm.log.180301-155002
 ---------------------------------------------------
2018-03-01 16:18:42: case.build starting 
 ---------------------------------------------------
2018-03-01 16:19:00: case.build error 
ERROR: BUILD FAIL: clm.buildlib failed, cat /glade/scratch/lfjiang/1x1ptnumaIA_test_crop/bld/lnd.bldlog.180301-161843
 ---------------------------------------------------
2018-03-01 16:19:00: case.submit starting 
 ---------------------------------------------------
2018-03-01 16:19:05: case.submit error 
ERROR: Build complete is not True please rebuild the model by calling case.build
 ---------------------------------------------------
2018-03-01 16:19:49: case.build starting 
 ---------------------------------------------------
2018-03-01 16:19:50: case.build error 
ERROR: 
ERROR env_build HAS CHANGED
  A manual clean of your obj directories is required
  You should execute the following:
    ./case.build --clean-all

 ---------------------------------------------------
2018-03-01 16:19:54: build.clean starting 
 ---------------------------------------------------
2018-03-01 16:19:58: build.clean success 
 ---------------------------------------------------
2018-03-01 16:19:59: case.build starting 
 ---------------------------------------------------
2018-03-01 16:25:03: case.build success 
 ---------------------------------------------------
2018-03-01 16:52:49: case.submit starting 
 ---------------------------------------------------
2018-03-01 16:52:57: case.submit success 
 ---------------------------------------------------
2018-03-01 16:53:09: case.run starting 
 ---------------------------------------------------
2018-03-01 17:18:08: case.run success 
 ---------------------------------------------------
2018-03-01 17:18:37: st_archive starting 
 ---------------------------------------------------
2018-03-01 17:18:38: st_archive success 
 ---------------------------------------------------
2018-03-01 22:44:23: case.build starting 
 ---------------------------------------------------
2018-03-01 22:45:27: case.build success 
 ---------------------------------------------------
2018-03-01 22:46:05: case.submit starting 
 ---------------------------------------------------
2018-03-01 22:46:11: case.submit success 
 ---------------------------------------------------
2018-03-01 22:46:15: case.run starting 
 ---------------------------------------------------
2018-03-01 23:26:21: case.build starting 
 ---------------------------------------------------
2018-03-01 23:27:12: case.build success 
 ---------------------------------------------------
2018-03-01 23:27:13: case.submit starting 
 ---------------------------------------------------
2018-03-01 23:27:17: case.submit success 
 ---------------------------------------------------
2018-03-01 23:27:22: case.run starting 
 ---------------------------------------------------
2018-03-01 23:44:52: case.build starting 
 ---------------------------------------------------
2018-03-01 23:45:37: case.build success 
 ---------------------------------------------------
2018-03-01 23:45:37: case.submit starting 
 ---------------------------------------------------
2018-03-01 23:45:43: case.submit success 
 ---------------------------------------------------
2018-03-01 23:45:54: case.run starting 
 ---------------------------------------------------
2018-03-01 23:51:45: case.build starting 
 ---------------------------------------------------
2018-03-01 23:52:37: case.build success 
 ---------------------------------------------------
2018-03-01 23:52:37: case.submit starting 
 ---------------------------------------------------
2018-03-01 23:52:43: case.submit success 
 ---------------------------------------------------
2018-03-01 23:52:46: case.run starting 
 ---------------------------------------------------
2018-03-02 00:01:00: case.build starting 
 ---------------------------------------------------
2018-03-02 00:01:12: case.build error 
ERROR: BUILD FAIL: clm.buildlib failed, cat /glade/scratch/lfjiang/1x1ptnumaIA_test_crop/bld/lnd.bldlog.180302-000100
 ---------------------------------------------------
2018-03-02 00:01:13: case.submit starting 
 ---------------------------------------------------
2018-03-02 00:01:16: case.submit error 
ERROR: Build complete is not True please rebuild the model by calling case.build
 ---------------------------------------------------
2018-03-02 00:10:05: case.build starting 
 ---------------------------------------------------
2018-03-02 00:10:06: case.build error 
ERROR: 
ERROR env_build HAS CHANGED
  A manual clean of your obj directories is required
  You should execute the following:
    ./case.build --clean-all

 ---------------------------------------------------
2018-03-02 00:10:09: build.clean starting 
 ---------------------------------------------------
2018-03-02 00:10:11: build.clean success 
 ---------------------------------------------------
2018-03-02 00:10:15: case.build starting 
 ---------------------------------------------------
2018-03-02 00:15:08: case.build success 
 ---------------------------------------------------
2018-03-02 00:15:12: case.submit starting 
 ---------------------------------------------------
2018-03-02 00:15:16: case.submit success 
 ---------------------------------------------------
2018-03-02 00:15:22: case.run starting 
 ---------------------------------------------------
2018-03-02 00:28:23: case.submit starting 
 ---------------------------------------------------
2018-03-02 00:28:28: case.submit success 
 ---------------------------------------------------
2018-03-02 00:28:32: case.run starting 
 ---------------------------------------------------
2018-03-02 00:53:13: case.run success 
 ---------------------------------------------------
2018-03-02 00:53:22: st_archive starting 
 ---------------------------------------------------
2018-03-02 00:53:22: st_archive success 
 ---------------------------------------------------
2018-03-02 01:10:52: case.build starting 
 ---------------------------------------------------
2018-03-02 01:11:05: case.build error 
ERROR: BUILD FAIL: clm.buildlib failed, cat /glade/scratch/lfjiang/1x1ptnumaIA_test_crop/bld/lnd.bldlog.180302-011052
 ---------------------------------------------------
2018-03-02 01:11:05: case.submit starting 
 ---------------------------------------------------
2018-03-02 01:11:09: case.submit error 
ERROR: Build complete is not True please rebuild the model by calling case.build
 ---------------------------------------------------
2018-03-02 01:16:16: case.build starting 
 ---------------------------------------------------
2018-03-02 01:16:17: case.build error 
ERROR: 
ERROR env_build HAS CHANGED
  A manual clean of your obj directories is required
  You should execute the following:
    ./case.build --clean-all

 ---------------------------------------------------
2018-03-02 01:16:21: build.clean starting 
 ---------------------------------------------------
2018-03-02 01:16:21: build.clean success 
 ---------------------------------------------------
2018-03-02 01:16:23: case.build starting 
 ---------------------------------------------------
2018-03-02 01:20:48: case.build starting 
 ---------------------------------------------------
2018-03-02 01:22:13: case.build error 
ERROR: BUILD FAIL: buildexe failed, cat /glade/scratch/lfjiang/1x1ptnumaIA_test_crop/bld/cesm.bldlog.180302-012048
 ---------------------------------------------------
2018-03-02 01:27:02: build.clean starting 
 ---------------------------------------------------
2018-03-02 01:27:04: build.clean success 
 ---------------------------------------------------
2018-03-02 01:27:08: case.build starting 
 ---------------------------------------------------
2018-03-02 01:31:56: case.build success 
 ---------------------------------------------------
2018-03-02 01:33:18: case.submit starting 
 ---------------------------------------------------
2018-03-02 01:33:23: case.submit success 
 ---------------------------------------------------
2018-03-02 01:33:27: case.run starting 
 ---------------------------------------------------
2018-03-02 01:42:21: case.submit starting 
 ---------------------------------------------------
2018-03-02 01:42:26: case.submit success 
 ---------------------------------------------------
2018-03-02 01:42:30: case.run starting 
 ---------------------------------------------------
2018-03-02 02:04:04: case.build starting 
 ---------------------------------------------------
2018-03-02 02:04:56: case.build success 
 ---------------------------------------------------
2018-03-02 02:05:13: case.submit starting 
 ---------------------------------------------------
2018-03-02 02:05:18: case.submit success 
 ---------------------------------------------------
2018-03-02 02:05:22: case.run starting 
 ---------------------------------------------------
2018-03-02 02:07:15: case.run success 
 ---------------------------------------------------
2018-03-02 02:07:24: st_archive starting 
 ---------------------------------------------------
2018-03-02 02:07:24: st_archive success 
 ---------------------------------------------------
2018-03-02 10:08:57: case.run error 
ERROR: Model did not complete, no /glade/scratch/lfjiang/1x1ptnumaIA_test_crop/run/cesm.log.180302-020522 log file 
 ---------------------------------------------------
2018-03-02 14:50:16: case.build starting 
 ---------------------------------------------------
2018-03-02 14:50:34: case.build error 
ERROR: BUILD FAIL: clm.buildlib failed, cat /glade/scratch/lfjiang/1x1ptnumaIA_test_crop/bld/lnd.bldlog.180302-145016
 ---------------------------------------------------
2018-03-02 16:00:46: case.build starting 
 ---------------------------------------------------
2018-03-02 16:00:48: case.build error 
ERROR: 
ERROR env_build HAS CHANGED
  A manual clean of your obj directories is required
  You should execute the following:
    ./case.build --clean-all

 ---------------------------------------------------
2018-03-02 16:00:52: build.clean starting 
 ---------------------------------------------------
2018-03-02 16:00:58: build.clean success 
 ---------------------------------------------------
2018-03-02 16:01:13: case.build starting 
 ---------------------------------------------------
2018-03-02 16:02:51: case.build error 
ERROR: BUILD FAIL: buildlib.pio failed, cat /glade/scratch/lfjiang/1x1ptnumaIA_test_crop/bld/pio.bldlog.180302-160113
 ---------------------------------------------------
2018-03-02 16:06:06: case.build starting 
 ---------------------------------------------------
2018-03-02 16:06:14: case.build error 
ERROR: BUILD FAIL: buildlib.pio failed, cat /glade/scratch/lfjiang/1x1ptnumaIA_test_crop/bld/pio.bldlog.180302-160606
 ---------------------------------------------------
2018-03-02 16:06:18: case.build starting 
 ---------------------------------------------------
2018-03-02 16:06:27: case.build error 
ERROR: BUILD FAIL: buildlib.pio failed, cat /glade/scratch/lfjiang/1x1ptnumaIA_test_crop/bld/pio.bldlog.180302-160618
 ---------------------------------------------------
2018-03-02 16:06:29: case.build starting 
 ---------------------------------------------------
2018-03-02 16:09:40: case.build error 
ERROR: BUILD FAIL: swav.buildlib failed, cat /glade/scratch/lfjiang/1x1ptnumaIA_test_crop/bld/wav.bldlog.180302-160629
BUILD FAIL: sglc.buildlib failed, cat /glade/scratch/lfjiang/1x1ptnumaIA_test_crop/bld/glc.bldlog.180302-160629
 ---------------------------------------------------
2018-03-02 16:09:43: case.build starting 
 ---------------------------------------------------
2018-03-02 16:10:18: case.build success 
 ---------------------------------------------------
2018-03-02 16:11:08: case.submit starting 
 ---------------------------------------------------
2018-03-02 16:11:18: case.submit success 
 ---------------------------------------------------
2018-03-02 16:11:21: case.run starting 
 ---------------------------------------------------
2018-03-02 17:31:09: case.build starting 
 ---------------------------------------------------
2018-03-02 17:32:14: case.build success 
 ---------------------------------------------------
2018-03-02 17:34:15: case.submit starting 
 ---------------------------------------------------
2018-03-02 17:34:20: case.submit success 
 ---------------------------------------------------
2018-03-02 17:34:24: case.run starting 
 ---------------------------------------------------
2018-03-02 17:34:52: case.submit starting 
 ---------------------------------------------------
2018-03-02 17:34:58: case.submit success 
 ---------------------------------------------------
2018-03-02 17:35:11: case.run starting 
 ---------------------------------------------------
2018-03-02 17:59:52: case.run success 
 ---------------------------------------------------
2018-03-02 18:00:06: st_archive starting 
 ---------------------------------------------------
2018-03-02 18:00:08: st_archive success 
 ---------------------------------------------------
2018-03-03 02:04:08: case.submit starting 
 ---------------------------------------------------
2018-03-03 02:04:17: case.submit success 
 ---------------------------------------------------
2018-03-03 02:04:20: case.run starting 
 ---------------------------------------------------
2018-03-03 02:16:30: case.run success 
 ---------------------------------------------------
2018-03-03 02:16:38: st_archive starting 
 ---------------------------------------------------
2018-03-03 02:16:39: st_archive success 
 ---------------------------------------------------