!!   USES THE DEFAULT INITIALIZATION FILE SPECIFIED IN bld/namelist_files/namelist_defaults_ctsm.xml
hist_mfilt        = 365
hist_nhtfrq       = -24
hist_empty_htapes = .true.
fates_spitfire_mode = 1
hist_fincl1       = 'ED_NPATCHES',
'ED_NCOHORTS',
'TRIMMING',
'AREA_PLANT',
'AREA_TREES',
'SITE_COLD_STATUS',
'SITE_DROUGHT_STATUS',
'SITE_GDD',
'SITE_NCHILLDAYS',
'SITE_NCOLDDAYS',
'SITE_DAYSINCE_COLDLEAFOFF',
'SITE_DAYSINCE_COLDLEAFON',
'SITE_DAYSINCE_DROUGHTLEAFOFF',
'SITE_DAYSINCE_DROUGHTLEAFON',
'SITE_MEANLIQVOL_DROUGHTPHEN',
'CANOPY_SPREAD',
'SECONDARY_FOREST_FRACTION',
'WOOD_PRODUCT',
'SECONDARY_FOREST_BIOMASS',
'FIRE_NESTEROV_INDEX',
'FIRE_IGNITIONS',
'FIRE_FDI',
'FIRE_ROS',
'FIRE_ROS_AREA_PRODUCT',
'EFFECT_WSPEED',
'FIRE_TFC_ROS',
'FIRE_TFC_ROS_AREA_PRODUCT',
'FIRE_INTENSITY',
'FIRE_INTENSITY_AREA_PRODUCT',
'FIRE_AREA',
'FIRE_FUEL_MEF',
'FIRE_FUEL_BULKD',
'FIRE_FUEL_EFF_MOIST',
'FIRE_FUEL_SAV',
'SUM_FUEL',
'LITTER_IN',
'LITTER_OUT',
'SEED_BANK',
'SEEDS_IN',
'STOREC',
'TOTVEGC',
'SAPWC',
'LEAFC',
'FNRTC',
'REPROC',
'CEFFLUX',
'ED_bstore',
'ED_bdead',
'ED_balive',
'ED_bleaf',
'ED_bsapwood',
'ED_bfineroot',
'ED_biomass',
'AGB',
'BIOMASS_CANOPY',
'BIOMASS_UNDERSTORY',
'PRIMARYLAND_PATCHFUSION_ERROR',
'DISTURBANCE_RATE_P2P',
'DISTURBANCE_RATE_P2S',
'DISTURBANCE_RATE_S2S',
'DISTURBANCE_RATE_FIRE',
'DISTURBANCE_RATE_LOGGING',
'DISTURBANCE_RATE_TREEFALL',
'DISTURBANCE_RATE_POTENTIAL',
'HARVEST_CARBON_FLUX',
'C_STOMATA',
'C_LBLAYER',
'NPP',
'GPP',
'AR',
'GROWTH_RESP',
'MAINT_RESP',
'GPP_CANOPY',
'AR_CANOPY',
'GPP_UNDERSTORY',
'AR_UNDERSTORY',
'DEMOTION_CARBONFLUX',
'PROMOTION_CARBONFLUX',
'MORTALITY_CARBONFLUX_CANOPY',
'MORTALITY_CARBONFLUX_UNDERSTORY',
'LEAF_MR',
'FROOT_MR',
'LIVECROOT_MR',
'LIVESTEM_MR',
'NEP',
'FATES_HR',
'Fire_Closs',
'CBALANCE_ERROR_FATES',
'ERROR_FATES',
'NPP_LEAF',
'NPP_SEED',
'NPP_STEM',
'NPP_FROOT',
'NPP_CROOT',
'NPP_STOR'