!----------------------------------------------------------------------------------
! Users should add all user specific namelist changes below in the form of
! namelist_var = new_namelist_value
!
! EXCEPTIONS:
! Set use_cndv           by the compset you use and the CLM_BLDNML_OPTS -dynamic_vegetation setting
! Set use_vichydro       by the compset you use and the CLM_BLDNML_OPTS -vichydro           setting
! Set use_cn             by the compset you use and CLM_BLDNML_OPTS -bgc  setting
! Set use_crop           by the compset you use and CLM_BLDNML_OPTS -crop setting
! Set spinup_state       by the CLM_BLDNML_OPTS -bgc_spinup      setting
! Set co2_ppmv           with CCSM_CO2_PPMV                      option
! Set fatmlndfrc         with LND_DOMAIN_PATH/LND_DOMAIN_FILE    options
! Set finidat            with RUN_REFCASE/RUN_REFDATE/RUN_REFTOD options for hybrid or branch cases
!                        (includes $inst_string for multi-ensemble cases)
!                        or with CLM_FORCE_COLDSTART to do a cold start
!                        or set it with an explicit filename here.
! Set maxpatch_glcmec    with GLC_NEC                            option
! Set glc_do_dynglacier  with GLC_TWO_WAY_COUPLING               env variable
!----------------------------------------------------------------------------------

flanduse_timeseries = ' '   ! This isn't needed for a non transient case, but will be once we start using transient compsets
fsurdat = "$DIN_LOC_ROOT/lnd/clm2/surfdata_esmf/PLUMBER2/ctsm5.3.0/surfdata_1x1_PLUMBER2_${PLUMBER2SITE}_hist_2000_16pfts_c240912.nc"

! custom namelist changes for each site / case
