 use_soil_moisture_streams = .true.
 use_lai_streams = .true.
