
cropcals_rx = .false.
cropcals_rx_adapt = .true.
