use_fates_fixed_biogeog=.true.
fates_radiation_model = 'twostream'
