hillslope_pft_distribution_method = 'DominantPftUniform'
