z0param_method = 'Meier2022'
use_z0m_snowmelt = .true.
