z0param_method = 'MeierXXXX'
use_z0m_snowmelt = .true.
use_z0mg_2d = .false.
paramfile = '/glade/p/cesm/lmwg_dev/oleson/Z0_RonnieMeier/ctsm51_params_newz0.c211112.nc'
