fsurdat = '$DIN_LOC_ROOT/lnd/clm2/surfdata_map/release-clm5.0.31/surfdata_0.9x1.25_hist_78pfts_TRENDY_simyr1850_c201110.nc'
