decomp_mode = 'mimics'
paramfile = '/glade/p/cesmdata/cseg/inputdata/lnd/clm2/paramdata/ctsm51_params.c210825.nc'
