toosmall_soil = 5._r8
toosmall_crop = 5._r8
toosmall_glacier = 5._r8
toosmall_lake = 5._r8
toosmall_wetland = 5._r8
toosmall_urban = 5._r8
