! Initial condition file at the desired configuration to run, so can verify that interpolating from it gives the same result
finidat = '$DIN_LOC_ROOT/lnd/clm2/initdata_map/clmi.I2000CLM45CRUBGC.2000-01-01.0.9x1.25_gx1v6_simyr2000_c170430.nc'
use_init_interp = .false.
