finidat = '$DIN_LOC_ROOT/lnd/clm2/initdata_map/clmi.I1850Clm50BgcCrop.1366-01-01.0.9x1.25_gx1v6_simyr1850_c190312.nc'
