!----------------------------------------------------------------------------------
! Users should add all user specific namelist changes below in the form of 
! namelist_var = new_namelist_value 
!
! EXCEPTIONS: 
! Set use_cndv           by the compset you use and the CLM_BLDNML_OPTS -dynamic_vegetation setting
! Set use_vichydro       by the compset you use and the CLM_BLDNML_OPTS -vichydro           setting
! Set use_cn             by the compset you use and CLM_BLDNML_OPTS -bgc  setting
! Set use_crop           by the compset you use and CLM_BLDNML_OPTS -crop setting
! Set spinup_state       by the CLM_BLDNML_OPTS -bgc_spinup      setting
! Set co2_ppmv           with CCSM_CO2_PPMV                      option
! Set fatmlndfrc         with LND_DOMAIN_PATH/LND_DOMAIN_FILE    options
! Set finidat            with RUN_REFCASE/RUN_REFDATE/RUN_REFTOD options for hybrid or branch cases
!                        (includes $inst_string for multi-ensemble cases)
!                        or with CLM_FORCE_COLDSTART to do a cold start
!                        or set it with an explicit filename here.
! Set maxpatch_glc       with GLC_NEC                            option
! Set glc_do_dynglacier  with GLC_TWO_WAY_COUPLING               env variable
!----------------------------------------------------------------------------------

stream_meshfile_cropcal = 'MESHFILE_PLACEHOLDER'
stream_fldFileName_sdate = 'SDATEFILE_PLACEHOLDER'
generate_crop_gdds = .true.
use_mxmat = .false.
stream_year_first_cropcal = 2000
stream_year_last_cropcal = 2000
model_year_align_cropcal = 2000

! (h1) Daily outputs for GDD generation and figure-making
hist_fincl2 = 'HUI', 'GDDACCUM', 'GDDHARV'
hist_nhtfrq(2) = -24
hist_mfilt(2) = 365
hist_type1d_pertape(2) = 'PFTS'
hist_dov2xy(2) = .false.

! (h2) Annual outputs for GDD generation (checks)
hist_fincl3 = 'GRAINC_TO_FOOD_PERHARV', 'GRAINC_TO_FOOD_ANN', 'SDATES', 'SDATES_PERHARV', 'SYEARS_PERHARV', 'HDATES', 'GDDHARV_PERHARV', 'GDDACCUM_PERHARV', 'HUI_PERHARV', 'SOWING_REASON_PERHARV', 'HARVEST_REASON_PERHARV'
hist_nhtfrq(3) = 17520
hist_mfilt(3) = 999
hist_type1d_pertape(3) = 'PFTS'
hist_dov2xy(3) = .false.
