! NOTE: Using an initial file that does NOT have TBD on it and 5.4 landuse timeseries dataset that has TBD on it
! TODO: The NSF-NCAR specific path needs to be updated here!
fsurdat = '/glade/derecho/scratch/wwieder/mksrf_5.4/surfdata_0.9x1.25_hist_1850_78pfts_c250428.nc'
flanduse_timeseries = '/glade/derecho/scratch/wwieder/mksrf_5.4/landuse.timeseries_0.9x1.25_hist_1850-2023_78pfts_c250428.nc'
finidat = '/glade/derecho/scratch/oleson/ANALYSIS/ctsm53041_54surfdata_098_pSASU.clm2.r.0161-01-01-00000.nc'
init_interp_fill_missing_urban_with_HD = .true.
use_init_interp = .true.
