hillslope_pft_distribution_method = 'FromFile'
hillslope_soil_profile_method = 'FromFile'
