! Turn off excess ice
use_excess_ice = .false.
use_excess_ice_streams = .false.
