 finidat ='/glade/scratch/dll/archive/TRENDY2019_S3_CO2ClimateLUC_matrix_v2/rest/1970-01-01-00000/TRENDY2019_S3_CO2ClimateLUC_matrix_v2.clm2.r.1970-01-01-00000.nc'
 use_init_interp = T
