 orb_iyear = 1700
 orb_iyear_align = 1700
