 use_c13        = .true.
 use_c14        = .true.
 use_fun        = .true.
 use_flexibleCN = .true.
