lower_boundary_condition = 2
soil_layerstruct = '49SL_10m'
use_bedrock = .true.
