lower_boundary_condition = 2
deep_soilcolumn = .true.
use_bedrock = .true.
