 h2osfcflag  = 0
 use_subgrid_fluxes = .false.
