use_hillslope = .true.
use_hillslope_routing = .true.
downscale_hillslope_meteorology = .false.
hillslope_head_gradient_method = 'Darcy'
hillslope_transmissivity_method = 'LayerSum'
hillslope_pft_distribution_method = 'PftLowlandUpland'
hillslope_soil_profile_method = 'Uniform'

use_ssre = .false.
