use_fates_fixed_biogeog=.true.
fates_spitfire_mode = 0