use_fates_luh = .true.
use_fates_nocomp = .false.
