! user_nl_clm namelist options written by PTCLMmkdata:
! ../PTCLMmkdata --verbose --pftgrid --soilgrid --donot_use_tower_yrs --ctsm_root $CTSMROOTDIR -s RF-Bra -d $DIN_LOC_ROOT --debug --sdate 140204 --map_gdate 140204 --mydatadir testing_dir/grid_file_creation 
 fsurdat = '$CTSMROOTDIR/tools/PTCLM/test/testing_dir/grid_file_creation/1x1pt_RF-Bra/surfdata_1x1pt_RF-Bra140204_simyr2000_140204.nc'
 hist_nhtfrq = 0
 hist_mfilt  = 1200
