fsurdat = "/glade/scratch/muszala/vicSurfData/surfdata_0.9x1.25_simyr2000_c130314.nc"
