! user_nl_clm namelist options written by PTCLMmkdata:
! ../PTCLMmkdata --mksurfdata_opts=-no_crop  --verbose --pftgrid --clmnmlusecase=20thC_transient --cesm_root ../../../../.. -s US-Ha1 -d /glade/p/cesmdata/cseg/inputdata --debug --sdate 140204 --map_gdate 140204 --mydatadir testing_dir/clm45grd_trans_pft 
 fsurdat = '/glade/p/work/erik/clm_clean_trunk/components/clm/tools/PTCLM/test/testing_dir/clm45grd_trans_pft/1x1pt_US-Ha1/surfdata_1x1pt_US-Ha1140204_simyr1850_140204.nc'
 flanduse_timeseries = /glade/p/work/erik/clm_clean_trunk/components/clm/tools/PTCLM/test/testing_dir/clm45grd_trans_pft/1x1pt_US-Ha1/landuse.timeseries_1x1pt_US-Ha1_hist140204_simyr1850-2005_140204.nc
 hist_nhtfrq = 0
 hist_mfilt  = 1200
