! Turn FATES-SP mode on
use_fates_sp = .true.
! Some settings that will be set when FATES-SP mode is turned on
soil_decomp_method = 'None'
use_lch4 = .false.
fates_spitfire_mode = 0
use_fates_fixed_biogeog = .true.
use_fates_nocomp = .true.
hist_ndens = 1
! Turn off a list of fields that are not needed for FATES-SP mode
hist_fexcl1 = 'FATES_TRIMMING', 'FATES_COLD_STATUS', 'FATES_GDD', 'FATES_NCHILLDAYS',
              'FATES_NCOLDDAYS', 'FATES_DAYSINCE_COLDLEAFOFF', 'FATES_DAYSINCE_COLDLEAFON',
              'FATES_CANOPY_SPREAD', 'FATES_VEGC_PF',
              'FATES_STOREC_PF', 'FATES_RECRUITMENT_PF', 'FATES_MORTALITY_PF', 'FATES_PATCHAREA_AP', 'FATES_LAI_AP',
              'FATES_CANOPYAREA_AP', 'FATES_NESTEROV_INDEX', 'FATES_IGNITIONS', 'FATES_FDI', 'FATES_ROS', 'FATES_EFFECT_WSPEED',
              'FATES_FUELCONSUMED', 'FATES_FIRE_INTENSITY', 'FATES_FIRE_INTENSITY_BURNFRAC', 'FATES_BURNFRAC', 'FATES_FUEL_MEF',
              'FATES_FUEL_BULKD', 'FATES_FUEL_EFF_MOIST', 'FATES_FUEL_SAV', 'FATES_FUEL_AMOUNT', 'FATES_FRAGMENTATION_SCALER_SL',
              'FATES_FUEL_MOISTURE_FC', 'FATES_FUEL_AMOUNT_FC', 'FATES_BURNFRAC_AP', 'FATES_FIRE_INTENSITY_BURNFRAC_AP',
              'FATES_FUEL_AMOUNT_AP', 'FATES_FUEL_BURNT_BURNFRAC_FC', 'FATES_LITTER_IN', 'FATES_LITTER_OUT', 'FATES_SEED_BANK',
              'FATES_SEEDS_IN', 'FATES_LITTER_IN_EL', 'FATES_LITTER_OUT_EL', 'FATES_SEED_BANK_EL', 'FATES_SEEDS_IN_LOCAL_EL',
              'FATES_SEEDS_IN_EXTERN_EL', 'FATES_SEED_GERM_EL', 'FATES_SEED_DECAY_EL', 'FATES_STOREC', 'FATES_VEGC',
              'FATES_SAPWOODC', 'FATES_FROOTC', 'FATES_REPROC', 'FATES_STRUCTC', 'FATES_NONSTRUCTC', 
              'FATES_VEGC_ABOVEGROUND', 'FATES_CANOPY_VEGC', 'FATES_USTORY_VEGC', 'FATES_PRIMARY_PATCHFUSION_ERR',
              'FATES_DISTURBANCE_RATE_FIRE', 'FATES_DISTURBANCE_RATE_LOGGING', 'FATES_DISTURBANCE_RATE_TREEFALL',
              'FATES_HARVEST_WOODPROD_C_FLUX', 'FATES_GPP_CANOPY', 'FATES_AUTORESP_CANOPY',
              'FATES_GPP_USTORY', 'FATES_AUTORESP_USTORY', 'FATES_CROWNAREA_CL', 'FATES_DEMOTION_CARBONFLUX',
              'FATES_PROMOTION_CARBONFLUX', 'FATES_MORTALITY_CFLUX_CANOPY', 'FATES_MORTALITY_CFLUX_USTORY', 
              'FATES_DDBH_CANOPY_SZ', 'FATES_DDBH_USTORY_SZ', 'FATES_BASALAREA_SZ',
              'FATES_VEGC_ABOVEGROUND_SZ', 'FATES_LAI_CANOPY_SZ', 'FATES_MORTALITY_CANOPY_SZ', 'FATES_NPLANT_USTORY_SZ',
              'FATES_LAI_USTORY_SZ', 'FATES_NPLANT_SZ', 'FATES_NPLANT_AC', 'FATES_MORTALITY_BACKGROUND_SZ',
              'FATES_MORTALITY_HYDRAULIC_SZ', 'FATES_MORTALITY_CSTARV_SZ', 'FATES_MORTALITY_IMPACT_SZ',
              'FATES_MORTALITY_FIRE_SZ', 'FATES_MORTALITY_TERMINATION_SZ', 'FATES_MORTALITY_LOGGING_SZ',
              'FATES_MORTALITY_FREEZING_SZ', 'FATES_MORTALITY_SENESCENCE_SZ', 'FATES_MORTALITY_AGESCEN_SZ',
              'FATES_MORTALITY_AGESCEN_AC', 'FATES_MORTALITY_USTORY_SZ', 'FATES_FROOTMAINTAR', 'FATES_CROOTMAINTAR',
              'FATES_LSTEMMAINTAR', 'FATES_NEP', 'FATES_HET_RESP', 'FATES_FIRE_CLOSS', 'FATES_FIRE_FLUX_EL',
              'FATES_LITTER_AG_FINE_EL', 'FATES_LITTER_BG_FINE_EL', 'FATES_LITTER_BG_CWD_EL', 'FATES_LITTER_AG_CWD_EL',
              'FATES_LITTER_CWD_ELDC', 'FATES_LEAF_ALLOC', 'FATES_SEED_ALLOC', 'FATES_STEM_ALLOC', 'FATES_FROOT_ALLOC',
              'FATES_CROOT_ALLOC', 'FATES_STORE_ALLOC', 'FATES_AUTORESP', 'FATES_GROWTH_RESP',
              'FATES_LEAFMAINTAR', 'FATES_MAINT_RESP', 'FATES_NPP', 'FATES_NPP_PF'
