hist_fields_list_file = .true.
hist_wrtch4diag = .true.
calc_human_stress_indices = 'ALL'