&clm_inparm 
 pertlim=0.0
 hist_empty_htapes=.true.
 hist_nhtfrq=1
 hist_fincl1="TSOI"
 hist_mfilt=720
/
