&clm_inparm 
 pertlim=1.e-14
 hist_empty_htapes=.true.
 hist_nhtfrq=1
 hist_fincl1="TSOI"
 hist_mfilt=720
/
