 ! Specify a dataset that has non-zero Gross Unrepresented Land Use change fields on it
 ! And turn it on
 flanduse_timeseries = '$DIN_LOC_ROOT/lnd/clm2/surfdata_map/ctsm5.1.dev052/landuse.timeseries_0.9x1.25_hist_78pfts_CMIP6_simyr1700-2021_c220825.nc'
 fsurdat = '$DIN_LOC_ROOT/lnd/clm2/surfdata_map/ctsm5.1.dev052/surfdata_0.9x1.25_hist_78pfts_CMIP6_simyr1700_c220825.nc'
 do_grossunrep = .true.
