 ! Turn on Gross Unrepresented Land Use
 do_grossunrep = .true.
