use_fates_nocomp = .true.
use_fates_fixed_biogeog=.true.