 glacier_region_rain_to_snow_behavior = 'converted_to_snow','converted_to_snow','runs_off','converted_to_snow'

