#!/bin/sh 
#
cat > lnd.stdin << EOF
 &clm_inparm
 caseid         = 'clmrun'
 ctitle         = 'clmrun'
 fsurdat        = "$CSMDATA/lnd/clm2/surfdata/surfdata_1.9x2.5_c070501.nc"
 fatmgrid       = "$CSMDATA/lnd/clm2/griddata/griddata_1.9x2.5_060404.nc"
 fatmlndfrc     = "$CSMDATA/lnd/clm2/griddata/fracdata_1.9x2.5_USGS_061130.nc"
 fpftcon        = "$CSMDATA/lnd/clm2/pftdata/pft-physiology.c070207"
 fndepdat       = "$CSMDATA/lnd/clm2/ndepdata/ndep_clm_2000_1.9x2.5_c070118.nc"
 offline_atmdir = "$CSMDATA/lnd/clm2/NCEPDATA.Qian.T62.c051024"
 nrevsn         = "$nrevsn"
 nsrest         =  $restart_type
 nelapse        =  $run_length
 dtime          =  1800
 start_ymd      =  19980101
 start_tod      =  0
 irad           = -1
 mss_irt        =  0
 hist_dov2xy    = .true.
 hist_nhtfrq    =  3
 hist_mfilt     =  1
 hist_ndens     =  1
 hist_crtinic   = 'MONTHLY'
 brnch_retain_casename = .true.
 /
 &prof_inparm
 /
EOF

