#!/bin/sh 
#
res="1.9x2.5"
mask="USGS"
cfgdir=${CLM_SCRIPTDIR}/../../bld

#finidat=`$cfgdir/queryDefaultNamelist.pl -res $res -options "mask=$mask" -silent -csmdata $CSMDATA -var finidat`
fsurdat=`$cfgdir/queryDefaultNamelist.pl -res $res -silent -csmdata $CSMDATA -var fsurdat`
fatmgrid=`$cfgdir/queryDefaultNamelist.pl -res $res -silent -csmdata $CSMDATA -var fatmgrid`
fatmlndfrc=`$cfgdir/queryDefaultNamelist.pl -res $res -options "mask=$mask" -silent -csmdata $CSMDATA -var fatmlndfrc`
fpftcon=`$cfgdir/queryDefaultNamelist.pl -silent -csmdata $CSMDATA -var fpftcon`
offline_atmdir=`$cfgdir/queryDefaultNamelist.pl -silent -csmdata $CSMDATA -var offline_atmdir` 
fndepdat=`$cfgdir/queryDefaultNamelist.pl -res $res -silent -csmdata $CSMDATA -options "BGC=cn,SIM_YEAR=2000 " -var fndepdat`

cat > lnd.stdin << EOF
 &clm_inparm
 caseid         = 'clmrun'
 ctitle         = 'clmrun'
 $fsurdat
 $fatmgrid
 $fatmlndfrc
 $fndepdat
 $fpftcon
 $offline_atmdir
 nrevsn         = "$nrevsn"
 nsrest         =  $restart_type
 nelapse        =  $run_length
 dtime          =  1800
 start_ymd      =  19980101
 start_tod      =  0
 irad           = -1
 mss_irt        =  0
 hist_dov2xy    = .true.
 hist_nhtfrq    =  3
 hist_mfilt     =  1
 hist_ndens     =  1
 hist_crtinic   = 'MONTHLY'
 brnch_retain_casename = .true.
 /
 &prof_inparm
 /
EOF

