 &drv_in
 orb_iyear      = 1950
 brnch_retain_casename=.true.
 /
 &clm_inparm
 suplnitro      = 'ALL'
 wrtdia         = .true.
 hist_dov2xy    = .true.,.false.
 hist_ndens     = 1,1
 hist_fincl1    = 'TRAFFICFLUX', 'SNOWLIQ:A','SNOWICE:A'
 /
