 &drv_in
 orb_iyear_ad   = 1950
 brnch_retain_casename=.true.
 /
 &clm_inparm
 carbon_only    = .true.
 wrtdia         = .true.
 hist_dov2xy    = .true.,.false.
 hist_ndens     = 1,1
 hist_crtinic   = 'NONE'
 hist_fincl1    = 'TRAFFICFLUX', 'SNOWLIQ:A','SNOWICE:A'
 /
