&drv_in
 brnch_retain_casename=.true.
/
&clm_inparm
 outnc_large_files=.true.
 hist_ndens=1,1
/
