 &drv_in
 orb_iyear_ad   = 1950
 brnch_retain_casename=.true.
 /
 &clm_inparm
 ice_runoff     = .false.
 scaled_harvest = .true.
 wrtdia         = .true.
 hist_dov2xy    = .true.,.false.
 hist_ndens     = 1,1
 hist_crtinic   = 'NONE'
 /
