&drv_in
 brnch_retain_casename=.true.
 single_column=.true.
 scmlat=30.
 scmlon=315.
/
&clm_inparm
 hist_ndens=1,1
/
