#!/bin/sh 
#
cat > lnd.stdin << EOF
 &clm_inparm
 caseid         = 'clmrun'
 ctitle         = 'clmrun'
 finidat        = ' '
 fsurdat        = "$CSMDATA/lnd/clm2/surfdata/surfdata_048x096_061108.nc"
 fatmgrid       = "$CSMDATA/lnd/clm2/griddata/griddata_48x96_060829.nc"
 fatmlndfrc     = "$CSMDATA/lnd/clm2/griddata/fracdata_48x96_gx3v5_060829.nc"
 fpftcon        = "$CSMDATA/lnd/clm2/pftdata/pft-physiology.c070207"
 fndepdat       = "$CSMDATA/lnd/clm2/ndepdata/1890/regrid_ndep_clm.nc"
 offline_atmdir = "$CSMDATA/lnd/clm2/NCEPDATA"
 nrevsn         = "$nrevsn"
 nsrest         =  $restart_type
 nelapse        =  $run_length
 dtime          =  1800
 start_ymd      =  19980101
 start_tod      =  0
 irad           = -1
 wrtdia         = .true.
 mss_irt        =  0
 hist_dov2xy    = .true.
 hist_nhtfrq    =  3
 hist_mfilt     =  1
 hist_ndens     =  1
 hist_crtinic   = 'MONTHLY'
 brnch_retain_casename = .true.
 /
 &prof_inparm
 /
EOF

