for_testing_allow_non_annual_changes = .true.
