fsurdat = '$DIN_LOC_ROOT/lnd/clm2/surfdata_esmf/ctsm5.2.0/surfdata_10x15_SSP5-8.5_78pfts_CMIP6_1850_c230517.nc'
flanduse_timeseries = '$DIN_LOC_ROOT/lnd/clm2/surfdata_esmf/ctsm5.2.0/landuse.timeseries_10x15_hist_78_CMIP6_1850-2000_c230517.nc'
