fsurdat = '/glade/p/cesmdata/cseg/inputdata/lnd/clm2/surfdata_map/surfdata_10x15_78pfts_CMIP6_simyr1850_c170824.nc'
flanduse_timeseries = '/glade/p/cesmdata/cseg/inputdata/lnd/clm2/surfdata_map/landuse.timeseries_10x15_hist_78pfts_CMIP6_simyr1850-2015_c170824.nc'
