! user_nl_clm namelist options written by PTCLMmkdata:
! ../PTCLMmkdata --verbose --pftgrid --clmnmlusecase=20thC_transient --ctsm_root $CTSMROOTDIR -s US-Ha1 -d $DIN_LOC_ROOT --debug --sdate 140204 --map_gdate 140204 --mydatadir testing_dir/grd_trans_pft 
 fsurdat = '$CTSMROOTDIR/tools/PTCLM/test/testing_dir/grd_trans_pft/1x1pt_US-Ha1/surfdata_1x1pt_US-Ha1140204_simyr1850_140204.nc'
 flanduse_timeseries = $CTSMROOTDIR/tools/PTCLM/test/testing_dir/grd_trans_pft/1x1pt_US-Ha1/landuse.timeseries_1x1pt_US-Ha1_hist140204_simyr1850-2015_140204.nc
 hist_nhtfrq = 0
 hist_mfilt  = 1200
