! user_nl_clm namelist options written by PTCLMmkdata:
! ../PTCLMmkdata --ctsm_root $CTSMROOTDIR -s US-CHATS -d $DIN_LOC_ROOT --debug --sdate 140204 --map_gdate 140204 --mydatadir testing_dir/noopt_file_creation 
 fsurdat = '$CTSMROOTDIR/tools/PTCLM/test/testing_dir/noopt_file_creation/1x1pt_US-CHATS/surfdata_1x1pt_US-CHATS140204_simyr2000_140204.nc'
 hist_nhtfrq = 0
 hist_mfilt  = 1200
