cropcals_rx = .true.
cropcals_rx_adapt = .false.
