hist_fincl1       = 'NPP','GPP','BTRAN','H2OSOI','TLAI','LITTER_IN','LITTER_OUT',
   'FIRE_AREA','SCORCH_HEIGHT','FIRE_INTENSITY','FIRE_TFC_ROS','FIRE_FUEL_MEF',
   'FIRE_FUEL_BULKD','FIRE_FUEL_SAV','FIRE_NESTEROV_INDEX','PFTbiomass',
   'PFTleafbiomass','FIRE_ROS','WIND','AREA_TREES','AREA_PLANT',
   'TOTSOMC','TOTLITC','T_SCALAR','NEP','HR'
