fsurdat = '$DIN_LOC_ROOT/lnd/clm2/surfdata_map/surfdata_10x15_mp24_simyr2000_c141219.nc'
flanduse_timeseries = '$DIN_LOC_ROOT/lnd/clm2/surfdata_map/landuse.timeseries_10x15_mp24_hist_simyr1850-2005_c141229.nc'

! Set check_dynpft_consistency to .false. because we currently use a year-2000 dataset rather than a year-1850 dataset.
! This setting can be removed once we use a year-1850 surface dataset, which is what is expected for transient runs.
check_dynpft_consistency = .false.
