cropcals_rx = .false.
cropcals_rx_adapt = .false.
stream_gdd20_seasons = .false.