use_soil_matrixcn = .true.
paramfile = '/glade/campaign/cgd/tss/people/oleson/modify_param/ctsm60_params_cn30.c241017.nc'
