use_soil_matrixcn = .true.
paramfile = '$DIN_LOC_ROOT/lnd/clm2/paramdata/ctsm60_params_cn30.c250311.nc'
