soil_layerstruct_predefined = '23SL_3.5m'
