 hist_nhtfrq    = 0,-240
 hist_mfilt     = 1,1
 use_dynroot    = .true.
 use_hydrstress = .false.
