! user_nl_clm namelist options written by PTCLMmkdata:
! ./PTCLMmkdata -s US-UMB -d /glade/p/cesmdata/cseg/inputdata --mydatadir /glade/p/cesmdata/cseg/inputdata/lnd/clm2/PTCLMmydatafiles.c160208 --phys=clm4_5 
 fsurdat = '$DIN_LOC_ROOT/lnd/clm2/PTCLMmydatafiles.c160208/1x1pt_US-UMB/surfdata_1x1pt_US-UMB_simyr2000_clm4_5_c160208.nc'
 hist_nhtfrq = 0
 hist_mfilt  = 1200
