! user_nl_clm namelist options written by PTCLMmkdata: no longer supported
 fsurdat = '$DIN_LOC_ROOT/lnd/clm2/PTCLMmydatafiles.c171024/1x1pt_US-UMB/surfdata_1x1pt_US-UMB_16pfts_Irrig_CMIP6_simyr2000_c171024.nc'
 hist_nhtfrq = 0
 hist_mfilt  = 1200
