! Add in an initial condition file that isn't in equilibrium and will need to be brought into equilibrium.
! We purposely want to add a shock to ensure the model can properly respond to it, skipping balance checks
! at the beginning and then coming into balance after enough time.
 finidat = '$DIN_LOC_ROOT/lnd/clm2/initdata_map/clmi.I1850Clm45BgcGs.0901-01-01.0.9x1.25_gx1v7_simyr1850_c190111.nc'
 use_init_interp = .true.
