use_fates_sp = .true.
fates_radiation_model = 'twostream'
