 anoxia          = .true.
 hist_wrtch4diag = .true.
