fsurdat = "/glade/scratch/muszala/vicSurfData/surfdata_1.9x2.5_simyr2000_c130314.nc"
