 use_luna    = .true.
 use_flexibleCN = .false.

