 use_luna    = .true.
 use_flexibleCN = .false.
 use_matrixcn = .false.
