 hist_nhtfrq    =0,0
 hist_mfilt     = 1,12
