 snow_cover_fraction_method = 'NiuYang2007'
 h2osfcflag  = 0
 use_subgrid_fluxes = .false.
