 hist_ndens  = 1,1
 oldfflag    = 1
 h2osfcflag  = 0
 origflag    = 1
 use_subgrid_fluxes = .false.
