 snow_cover_fraction_method = 'ny07'
 h2osfcflag  = 0
 origflag    = 1
 use_subgrid_fluxes = .false.
