 use_matrixcn = .true.
 use_soil_matrixcn = .true.
 is_outmatrix = .true.
