2018-02-27 11:49:43: case.setup starting 
 ---------------------------------------------------
2018-02-27 11:49:45: case.setup success 
 ---------------------------------------------------
2018-02-27 11:55:47: case.build starting 
 ---------------------------------------------------
2018-02-27 12:00:52: case.build success 
 ---------------------------------------------------
2018-02-27 12:01:05: case.submit starting 
 ---------------------------------------------------
2018-02-27 12:01:16: case.submit success 
 ---------------------------------------------------
2018-02-27 12:01:24: case.run starting 
 ---------------------------------------------------
2018-02-27 12:02:11: case.run error 
ERROR: RUN FAIL: Command 'mpiexec_mpt  -np 1 -p "%g:"  omplace -tm open64  /glade/scratch/lfjiang/1x1ptBra_test_crop/bld/cesm.exe  >> cesm.log.$LID 2>&1 ' failed
See log file for details: /glade/scratch/lfjiang/1x1ptBra_test_crop/run/cesm.log.180227-120124
 ---------------------------------------------------
2018-02-27 14:16:00: case.submit starting 
 ---------------------------------------------------
2018-02-27 14:17:20: case.submit success 
 ---------------------------------------------------
2018-02-27 14:17:31: case.run starting 
 ---------------------------------------------------
2018-02-27 14:18:30: case.run error 
ERROR: RUN FAIL: Command 'mpiexec_mpt  -np 1 -p "%g:"  omplace -tm open64  /glade/scratch/lfjiang/1x1ptBra_test_crop/bld/cesm.exe  >> cesm.log.$LID 2>&1 ' failed
See log file for details: /glade/scratch/lfjiang/1x1ptBra_test_crop/run/cesm.log.180227-141731
 ---------------------------------------------------
