finidat = '$DIN_LOC_ROOT/lnd/clm2/initdata_map/clmi.IG1850CRUCLM50BGC.0481-01-01.1.9x2.5_g1v6_gl5_simyr1850_c160127.nc'
limit_irrigation_if_rof_enabled = .false.
leaf_mr_vcm = 0.015d00
use_bedrock = .true.
use_init_interp = .true.
use_hydrstress = .true.
use_luna = .true.
use_flexibleCN = .true.
use_fun = .true.
