hillslope_soil_profile_method = 'Linear'
