cropcals_rx = .true.
stream_fldFileName_cultivar_gdds = ''
generate_crop_gdds = .true.
use_mxmat = .false.

! (h3) Daily outputs for GDD generation and figure-making
hist_fincl4 = 'GDDACCUM', 'GDDHARV'
hist_nhtfrq(4) = -24
hist_mfilt(4) = 365
hist_type1d_pertape(4) = 'PFTS'
hist_dov2xy(4) = .false.
