paramfile = '$DIN_LOC_ROOT/lnd/clm2/paramdata/ctsm60_ceta450_cn30_co2_slope30.c250326.nc'
