hist_wrt_matrixcn_diag = .true.
use_matrixcn = .true.
use_soil_matrixcn = .true.
