! TODO SSR: Replace this with fates_harvest_mode
use_fates_logging= .true.
