use_dynroot = .true.
use_hydrstress = .false.
