for_testing_bypass_init = .true.
for_testing_bypass_run = .true.
for_testing_run_ncdiopio_tests = .true.

! Turn off history, restarts, and output
hist_empty_htapes = .true.
use_noio = .true.
