for_testing_run_ncdiopio_tests = .true.
for_testing_run_decomp_init_tests = .true.
for_testing_exit_after_self_tests = .true.

! Turn off history, restarts, and output
hist_empty_htapes = .true.
use_noio = .true.