use_z0mg_2d = .true.
fsurdat = '/glade/p/cesm/lmwg_dev/oleson/Z0_RonnieMeier/surfdata_0.9x1.25_hist_16pfts_Irrig_CMIP6_simyr2000_c210624.nc'
