2018-03-03 04:14:49: case.setup starting 
 ---------------------------------------------------
2018-03-03 04:14:51: case.setup success 
 ---------------------------------------------------
2018-03-03 04:16:43: case.build starting 
 ---------------------------------------------------
2018-03-03 04:20:03: case.build error 
ERROR: BUILD FAIL: clm.buildlib failed, cat /glade/scratch/lfjiang/1x1ptnumaIA_test_original_crop/bld/lnd.bldlog.180303-041644
 ---------------------------------------------------
2018-03-03 04:21:07: case.build starting 
 ---------------------------------------------------
2018-03-03 04:21:27: case.build error 
ERROR: BUILD FAIL: clm.buildlib failed, cat /glade/scratch/lfjiang/1x1ptnumaIA_test_original_crop/bld/lnd.bldlog.180303-042107
 ---------------------------------------------------
2018-03-03 04:22:05: build.clean starting 
 ---------------------------------------------------
2018-03-03 04:22:07: build.clean success 
 ---------------------------------------------------
2018-03-03 04:22:09: case.build starting 
 ---------------------------------------------------
2018-03-03 04:27:01: case.build success 
 ---------------------------------------------------
2018-03-03 04:27:05: case.submit starting 
 ---------------------------------------------------
2018-03-03 04:27:12: case.submit success 
 ---------------------------------------------------
2018-03-03 04:27:15: case.run starting 
 ---------------------------------------------------
2018-03-03 04:27:34: case.run error 
ERROR: RUN FAIL: Command 'mpiexec_mpt  -np 1 -p "%g:"  omplace -tm open64  /glade/scratch/lfjiang/1x1ptnumaIA_test_original_crop/bld/cesm.exe  >> cesm.log.$LID 2>&1 ' failed
See log file for details: /glade/scratch/lfjiang/1x1ptnumaIA_test_original_crop/run/cesm.log.180303-042715
 ---------------------------------------------------
2018-03-03 04:30:17: case.submit starting 
 ---------------------------------------------------
2018-03-03 04:30:22: case.submit success 
 ---------------------------------------------------
2018-03-03 04:30:26: case.run starting 
 ---------------------------------------------------
2018-03-03 04:30:45: case.run error 
ERROR: RUN FAIL: Command 'mpiexec_mpt  -np 1 -p "%g:"  omplace -tm open64  /glade/scratch/lfjiang/1x1ptnumaIA_test_original_crop/bld/cesm.exe  >> cesm.log.$LID 2>&1 ' failed
See log file for details: /glade/scratch/lfjiang/1x1ptnumaIA_test_original_crop/run/cesm.log.180303-043026
 ---------------------------------------------------
2018-03-03 04:39:38: case.build starting 
 ---------------------------------------------------
2018-03-03 04:41:37: case.build success 
 ---------------------------------------------------
2018-03-03 04:42:42: case.submit starting 
 ---------------------------------------------------
2018-03-03 04:42:46: case.submit success 
 ---------------------------------------------------
2018-03-03 04:42:50: case.run starting 
 ---------------------------------------------------
2018-03-03 04:43:02: case.run error 
ERROR: RUN FAIL: Command 'mpiexec_mpt  -np 1 -p "%g:"  omplace -tm open64  /glade/scratch/lfjiang/1x1ptnumaIA_test_original_crop/bld/cesm.exe  >> cesm.log.$LID 2>&1 ' failed
See log file for details: /glade/scratch/lfjiang/1x1ptnumaIA_test_original_crop/run/cesm.log.180303-044250
 ---------------------------------------------------
2018-03-03 04:50:07: case.build starting 
 ---------------------------------------------------
2018-03-03 04:51:08: case.build success 
 ---------------------------------------------------
2018-03-03 04:51:08: case.submit starting 
 ---------------------------------------------------
2018-03-03 04:51:12: case.submit success 
 ---------------------------------------------------
2018-03-03 04:51:16: case.run starting 
 ---------------------------------------------------
2018-03-03 04:51:34: case.run error 
ERROR: RUN FAIL: Command 'mpiexec_mpt  -np 1 -p "%g:"  omplace -tm open64  /glade/scratch/lfjiang/1x1ptnumaIA_test_original_crop/bld/cesm.exe  >> cesm.log.$LID 2>&1 ' failed
See log file for details: /glade/scratch/lfjiang/1x1ptnumaIA_test_original_crop/run/cesm.log.180303-045116
 ---------------------------------------------------
2018-03-03 04:56:14: case.build starting 
 ---------------------------------------------------
2018-03-03 04:57:15: case.build success 
 ---------------------------------------------------
2018-03-03 04:57:15: case.submit starting 
 ---------------------------------------------------
2018-03-03 04:57:19: case.submit success 
 ---------------------------------------------------
2018-03-03 04:57:23: case.run starting 
 ---------------------------------------------------
2018-03-03 04:57:35: case.run error 
ERROR: RUN FAIL: Command 'mpiexec_mpt  -np 1 -p "%g:"  omplace -tm open64  /glade/scratch/lfjiang/1x1ptnumaIA_test_original_crop/bld/cesm.exe  >> cesm.log.$LID 2>&1 ' failed
See log file for details: /glade/scratch/lfjiang/1x1ptnumaIA_test_original_crop/run/cesm.log.180303-045723
 ---------------------------------------------------
2018-03-03 04:59:45: case.build starting 
 ---------------------------------------------------
2018-03-03 05:01:21: build.clean starting 
 ---------------------------------------------------
2018-03-03 05:01:22: build.clean success 
 ---------------------------------------------------
2018-03-03 05:01:24: case.build starting 
 ---------------------------------------------------
2018-03-03 05:04:49: case.build starting 
 ---------------------------------------------------
2018-03-03 05:05:43: build.clean starting 
 ---------------------------------------------------
2018-03-03 05:05:43: build.clean success 
 ---------------------------------------------------
2018-03-03 05:05:45: case.build starting 
 ---------------------------------------------------
2018-03-03 05:10:29: case.build success 
 ---------------------------------------------------
2018-03-03 05:10:32: case.submit starting 
 ---------------------------------------------------
2018-03-03 05:10:37: case.submit success 
 ---------------------------------------------------
2018-03-03 05:10:40: case.run starting 
 ---------------------------------------------------
2018-03-03 05:11:19: case.run error 
ERROR: RUN FAIL: Command 'mpiexec_mpt  -np 1 -p "%g:"  omplace -tm open64  /glade/scratch/lfjiang/1x1ptnumaIA_test_original_crop/bld/cesm.exe  >> cesm.log.$LID 2>&1 ' failed
See log file for details: /glade/scratch/lfjiang/1x1ptnumaIA_test_original_crop/run/cesm.log.180303-051040
 ---------------------------------------------------
2018-03-03 05:14:19: case.build starting 
 ---------------------------------------------------
2018-03-03 05:15:04: case.build success 
 ---------------------------------------------------
2018-03-03 05:15:05: case.submit starting 
 ---------------------------------------------------
2018-03-03 05:15:09: case.submit success 
 ---------------------------------------------------
2018-03-03 05:15:12: case.run starting 
 ---------------------------------------------------
2018-03-03 05:21:29: case.run success 
 ---------------------------------------------------
2018-03-03 05:21:34: st_archive starting 
 ---------------------------------------------------
2018-03-03 05:21:34: st_archive success 
 ---------------------------------------------------
2018-03-03 05:22:43: case.submit starting 
 ---------------------------------------------------
2018-03-03 05:22:48: case.submit success 
 ---------------------------------------------------
2018-03-03 05:22:50: case.run starting 
 ---------------------------------------------------
2018-03-03 05:40:29: case.run success 
 ---------------------------------------------------
2018-03-03 05:40:36: st_archive starting 
 ---------------------------------------------------
2018-03-03 05:40:37: st_archive success 
 ---------------------------------------------------
2018-03-03 10:08:32: case.build starting 
 ---------------------------------------------------
2018-03-03 10:10:31: case.build success 
 ---------------------------------------------------
2018-03-03 10:10:46: case.submit starting 
 ---------------------------------------------------
2018-03-03 10:10:51: case.submit success 
 ---------------------------------------------------
2018-03-03 10:10:55: case.run starting 
 ---------------------------------------------------
2018-03-03 10:28:41: case.run success 
 ---------------------------------------------------
2018-03-03 10:28:48: st_archive starting 
 ---------------------------------------------------
2018-03-03 10:28:48: st_archive success 
 ---------------------------------------------------
2018-03-03 11:34:08: case.build starting 
 ---------------------------------------------------
2018-03-03 11:34:37: case.build error 
ERROR: BUILD FAIL: clm.buildlib failed, cat /glade/scratch/lfjiang/1x1ptnumaIA_test_original_crop/bld/lnd.bldlog.180303-113408
 ---------------------------------------------------
2018-03-03 11:38:05: case.build starting 
 ---------------------------------------------------
2018-03-03 11:38:06: case.build error 
ERROR: 
ERROR env_build HAS CHANGED
  A manual clean of your obj directories is required
  You should execute the following:
    ./case.build --clean-all

 ---------------------------------------------------
2018-03-03 11:38:12: build.clean starting 
 ---------------------------------------------------
2018-03-03 11:38:13: build.clean success 
 ---------------------------------------------------
2018-03-03 11:38:15: case.build starting 
 ---------------------------------------------------
2018-03-03 11:42:07: case.build error 
ERROR: BUILD FAIL: clm.buildlib failed, cat /glade/scratch/lfjiang/1x1ptnumaIA_test_original_crop/bld/lnd.bldlog.180303-113816
 ---------------------------------------------------
2018-03-03 11:43:59: case.build starting 
 ---------------------------------------------------
2018-03-03 11:45:20: case.build success 
 ---------------------------------------------------
2018-03-03 11:45:34: case.submit starting 
 ---------------------------------------------------
2018-03-03 11:45:40: case.submit success 
 ---------------------------------------------------
2018-03-03 11:46:36: case.run starting 
 ---------------------------------------------------
2018-03-03 12:04:33: case.run success 
 ---------------------------------------------------
2018-03-03 12:04:42: st_archive starting 
 ---------------------------------------------------
2018-03-03 12:04:42: st_archive success 
 ---------------------------------------------------
2018-03-03 14:01:50: case.submit starting 
 ---------------------------------------------------
2018-03-03 14:01:54: case.submit success 
 ---------------------------------------------------
2018-03-03 14:02:55: case.run starting 
 ---------------------------------------------------
2018-03-03 14:20:43: case.run success 
 ---------------------------------------------------
2018-03-03 14:20:49: st_archive starting 
 ---------------------------------------------------
2018-03-03 14:20:50: st_archive success 
 ---------------------------------------------------
2018-03-03 16:07:36: case.submit starting 
 ---------------------------------------------------
2018-03-03 16:07:41: case.submit success 
 ---------------------------------------------------
2018-03-03 16:07:45: case.run starting 
 ---------------------------------------------------
2018-03-03 17:05:21: case.run success 
 ---------------------------------------------------
2018-03-03 17:05:39: st_archive starting 
 ---------------------------------------------------
2018-03-03 17:05:39: st_archive success 
 ---------------------------------------------------
2018-03-03 17:09:31: case.build starting 
 ---------------------------------------------------
2018-03-03 17:11:36: case.build success 
 ---------------------------------------------------
2018-03-03 17:11:36: case.submit starting 
 ---------------------------------------------------
2018-03-03 17:11:41: case.submit success 
 ---------------------------------------------------
2018-03-03 17:11:48: case.run starting 
 ---------------------------------------------------
2018-03-03 17:18:06: case.run success 
 ---------------------------------------------------
2018-03-03 17:18:12: st_archive starting 
 ---------------------------------------------------
2018-03-03 17:18:13: st_archive success 
 ---------------------------------------------------
2018-03-03 18:43:35: case.submit starting 
 ---------------------------------------------------
2018-03-03 18:43:40: case.submit success 
 ---------------------------------------------------
2018-03-03 18:43:43: case.run starting 
 ---------------------------------------------------
2018-03-03 19:01:31: case.run success 
 ---------------------------------------------------
2018-03-03 19:01:42: st_archive starting 
 ---------------------------------------------------
2018-03-03 19:01:43: st_archive success 
 ---------------------------------------------------
2018-03-03 19:33:52: case.build starting 
 ---------------------------------------------------
2018-03-03 19:35:51: case.build success 
 ---------------------------------------------------
2018-03-03 19:35:51: case.submit starting 
 ---------------------------------------------------
2018-03-03 19:35:56: case.submit success 
 ---------------------------------------------------
2018-03-03 19:36:01: case.run starting 
 ---------------------------------------------------
2018-03-03 20:05:51: case.run success 
 ---------------------------------------------------
2018-03-03 20:06:42: st_archive starting 
 ---------------------------------------------------
2018-03-03 20:06:43: st_archive success 
 ---------------------------------------------------
2018-03-04 00:24:53: case.build starting 
 ---------------------------------------------------
2018-03-04 00:25:11: case.build error 
ERROR: BUILD FAIL: clm.buildlib failed, cat /glade/scratch/lfjiang/1x1ptnumaIA_test_original_crop/bld/lnd.bldlog.180304-002453
 ---------------------------------------------------
2018-03-04 00:26:06: build.clean starting 
 ---------------------------------------------------
2018-03-04 00:26:08: build.clean success 
 ---------------------------------------------------
2018-03-04 00:26:10: case.build starting 
 ---------------------------------------------------
2018-03-04 00:31:07: case.build success 
 ---------------------------------------------------
2018-03-04 00:32:21: case.submit starting 
 ---------------------------------------------------
2018-03-04 00:32:28: case.submit success 
 ---------------------------------------------------
2018-03-04 00:32:32: case.run starting 
 ---------------------------------------------------
2018-03-04 01:02:02: case.run success 
 ---------------------------------------------------
2018-03-04 01:02:49: st_archive starting 
 ---------------------------------------------------
2018-03-04 01:02:49: st_archive success 
 ---------------------------------------------------
2018-03-04 01:30:47: case.build starting 
 ---------------------------------------------------
2018-03-04 01:32:47: case.build success 
 ---------------------------------------------------
2018-03-04 01:32:48: case.submit starting 
 ---------------------------------------------------
2018-03-04 01:32:52: case.submit success 
 ---------------------------------------------------
2018-03-04 01:33:30: case.run starting 
 ---------------------------------------------------
2018-03-04 02:02:47: case.run success 
 ---------------------------------------------------
2018-03-04 02:03:34: st_archive starting 
 ---------------------------------------------------
2018-03-04 02:03:35: st_archive success 
 ---------------------------------------------------
2018-03-04 02:15:16: case.build starting 
 ---------------------------------------------------
2018-03-04 02:17:19: case.build success 
 ---------------------------------------------------
2018-03-04 02:17:19: case.submit starting 
 ---------------------------------------------------
2018-03-04 02:17:24: case.submit success 
 ---------------------------------------------------
2018-03-04 02:17:27: case.run starting 
 ---------------------------------------------------
2018-03-04 02:18:39: case.submit starting 
 ---------------------------------------------------
2018-03-04 02:18:43: case.submit success 
 ---------------------------------------------------
2018-03-04 02:20:53: case.run starting 
 ---------------------------------------------------
2018-03-04 02:26:25: case.build starting 
 ---------------------------------------------------
2018-03-04 02:28:23: case.build success 
 ---------------------------------------------------
2018-03-04 02:28:24: case.submit starting 
 ---------------------------------------------------
2018-03-04 02:28:28: case.submit success 
 ---------------------------------------------------
2018-03-04 02:28:34: case.run starting 
 ---------------------------------------------------
2018-03-04 02:35:36: case.build starting 
 ---------------------------------------------------
2018-03-04 02:36:18: case.build success 
 ---------------------------------------------------
2018-03-04 02:36:32: case.submit starting 
 ---------------------------------------------------
2018-03-04 02:36:36: case.submit success 
 ---------------------------------------------------
2018-03-04 02:36:40: case.run starting 
 ---------------------------------------------------
2018-03-04 02:43:01: case.run success 
 ---------------------------------------------------
2018-03-04 02:43:19: st_archive starting 
 ---------------------------------------------------
2018-03-04 02:43:20: st_archive success 
 ---------------------------------------------------
2018-03-04 03:11:21: case.build starting 
 ---------------------------------------------------
2018-03-04 03:13:19: case.build success 
 ---------------------------------------------------
2018-03-04 03:13:19: case.submit starting 
 ---------------------------------------------------
2018-03-04 03:13:24: case.submit success 
 ---------------------------------------------------
2018-03-04 03:13:27: case.run starting 
 ---------------------------------------------------
2018-03-04 03:43:08: case.run success 
 ---------------------------------------------------
2018-03-04 03:44:17: st_archive starting 
 ---------------------------------------------------
2018-03-04 03:44:18: st_archive success 
 ---------------------------------------------------
2018-03-04 13:07:04: case.build starting 
 ---------------------------------------------------
2018-03-04 13:07:54: case.build success 
 ---------------------------------------------------
2018-03-04 13:07:54: case.submit starting 
 ---------------------------------------------------
2018-03-04 13:08:01: case.submit success 
 ---------------------------------------------------
2018-03-04 13:08:06: case.run starting 
 ---------------------------------------------------
2018-03-04 13:16:40: case.run success 
 ---------------------------------------------------
2018-03-04 13:16:57: st_archive starting 
 ---------------------------------------------------
2018-03-04 13:16:57: st_archive success 
 ---------------------------------------------------
2018-03-04 20:29:53: case.submit starting 
 ---------------------------------------------------
2018-03-04 20:30:01: case.submit success 
 ---------------------------------------------------
2018-03-04 20:30:05: case.run starting 
 ---------------------------------------------------
2018-03-04 20:32:52: case.build starting 
 ---------------------------------------------------
2018-03-04 20:34:53: case.build success 
 ---------------------------------------------------
2018-03-04 20:36:23: case.run success 
 ---------------------------------------------------
2018-03-04 20:36:40: st_archive starting 
 ---------------------------------------------------
2018-03-04 20:36:41: st_archive success 
 ---------------------------------------------------
2018-03-04 20:53:02: case.build starting 
 ---------------------------------------------------
2018-03-04 20:54:59: case.build success 
 ---------------------------------------------------
2018-03-04 20:55:15: case.submit starting 
 ---------------------------------------------------
2018-03-04 20:55:20: case.submit success 
 ---------------------------------------------------
2018-03-04 20:55:25: case.run starting 
 ---------------------------------------------------
2018-03-04 21:24:57: case.run success 
 ---------------------------------------------------
2018-03-07 05:35:06: case.submit starting 
 ---------------------------------------------------
2018-03-07 05:35:13: case.submit success 
 ---------------------------------------------------
2018-03-07 05:35:34: case.run starting 
 ---------------------------------------------------
2018-03-07 06:34:34: case.run success 
 ---------------------------------------------------
2018-03-07 07:35:07: st_archive starting 
 ---------------------------------------------------
2018-03-07 07:35:08: st_archive success 
 ---------------------------------------------------
2018-03-10 00:09:42: case.build starting 
 ---------------------------------------------------
2018-03-10 00:12:00: case.build success 
 ---------------------------------------------------
2018-03-10 00:14:43: case.submit starting 
 ---------------------------------------------------
2018-03-10 00:14:48: case.submit success 
 ---------------------------------------------------
2018-03-10 00:14:58: case.run starting 
 ---------------------------------------------------
2018-03-10 00:15:56: case.run error 
ERROR: RUN FAIL: Command 'mpiexec_mpt  -np 1 -p "%g:"  omplace -tm open64  /glade/scratch/lfjiang/1x1ptnumaIA_test_original_crop/bld/cesm.exe  >> cesm.log.$LID 2>&1 ' failed
See log file for details: /glade/scratch/lfjiang/1x1ptnumaIA_test_original_crop/run/cesm.log.180310-001458
 ---------------------------------------------------
