fates_regeneration_model = 'trs_no_seed_dyn'
