fire_method = 'spitfire'
fates_spitfire_mode = 4
hist_nhtfrq = 0
hist_mfilt = 1
