! Try all the different mapalgo options in the various stream files
ndepmapalgo = 'redist'
dust_emis_method = 'Zender_2003'
zender_soil_erod_source = 'lnd'
zendersoilerod_mapalgo = 'nn'
lightngmapalgo = 'consf'
popdensmapalgo = 'consd'
urbantvmapalgo = 'redist'
use_excess_ice = .true.
use_excess_ice_streams = .true.
stream_mapalgo_exice = 'nn'
