soil_layerstruct_userdefined_nlevsoi = 4
soil_layerstruct_userdefined = 0.1d0,0.3d0,0.6d0,1.0d0,1.0d0
