stream_year_first_cropcal = 2000
stream_year_last_cropcal = 2000
model_year_align_cropcal = 2000

stream_meshfile_cropcal = '/glade/p/cesmdata/cseg/inputdata/share/meshes/10x15_nomask_c110308_ESMFmesh.nc'
stream_fldFileName_sdate = '/glade/work/samrabin/crop_dates/sdates_ggcmi_crop_calendar_phase3_v1.01_nninterp-f10_f10_mg37.2000-2000.fill1.nc'

