use_init_interp = .true.
use_hydrstress = .false.

hist_fincl1 += 'QIRRIG_DEMAND'
