! Turn on Carbon isotopes
use_c13 = .true.
use_c14 = .true.
use_c13_timeseries = .true.
use_c14_bombspike = .true.
