
hist_mfilt        = 365
hist_nhtfrq       = -24

