
hist_mfilt        = 1
hist_nhtfrq       = -24

