!----- 1% CO2 experiments-------
!fsurdat = '/glade/campaign/cesm/cesmdata/inputdata/lnd/clm2/surfdata_esmf/ctsm5.4.0/surfdata_0.9x1.25_hist_1850_78pfts_WIEMIP_c260408.nc'

!------ Overshoot scenarios--------
fsurdat = '/glade/campaign/cesm/cesmdata/inputdata/lnd/clm2/surfdata_esmf/ctsm5.4.0/surfdata_0.9x1.25_hist_2023_78pfts_WIEMIP_c260603.nc'

stream_fldfilename_ndep = '/glade/derecho/scratch/wwieder/temp_work/WIEMIP/ndep/fndep_clm_hist_from_input4MIPs_surfaceFluxes_CMIP_FZJ-CMIP-nitrogen-2-0_gn_1850-2022.05deg.nc'
stream_meshfile_ndep = '/glade/derecho/scratch/swensosc/WIEMIP/historical_three_stream/ESMFmesh_WIEMIP_0.5deg_c260603.nc'
stream_year_first_ndep = 1850
model_year_align_ndep = 1
stream_year_last_ndep = 1850

use_c13 = .false.
use_c14 = .false.

!--------------------
! Flat case
!--------------------

! paramfile = '/glade/work/wwieder/modified_inputs/ctsm60_params.genericCropFix.ch4cal_d.c260410.nc'

!--------------------
! Hillslope changes
!--------------------
! suggested fire chagnes from Fang
! paramfile = '/glade/u/home/fangli/ctsm60_params.genericCropFix.ch4cal_e.fire.c260424.nc'
paramfile = '/glade/campaign/cesm/cesmdata/inputdata/lnd/clm2/paramdata/ctsm60-HH_params.c260518.nc'

! 16 column hillslope and vegetation data
!hillslope_file = '/glade/derecho/scratch/swensosc/WIEMIP/hillslope_geo_params_trapezoid_worldcover_0.9x1.25_Global_FAB.nc'

! 9 column hillslope file
hillslope_file = '/glade/work/swensosc/HillslopeHydrology/InputData/Global/hillslope_geo_params_3_col_3_aspect_trapezoid_worldcover_0.9x1.25_Global_FAB.nc'

use_hillslope = .true.
use_hillslope_routing = .true.
finundation_method = 'h2osfc'
hillslope_fsat_equals_zero = .true.
n_dom_pfts = 2

