
hist_mfilt        = 365
hist_nhtfrq       = -24

hist_fincl1 += 'GAMMA' 'GAMMAC' 'GAMMAA' 'GAMMAL' 'GAMMAT' 'GAMMAP' 'GAMMAS' 'CISHA' 'CISUN' 'FSUN24' 'FSUN' 'FSUN240' 'PCO2'