hist_nhtfrq = 1
hist_mfilt = 1
hist_ndens = 1