rtmhist_nhtfrq = 1
rtmhist_mfilt = 1
rtmhist_ndens = 1
