hist_empty_htapes = .true.
use_fates_planthydro= .true.
hist_fincl1       = 'FATES_ERRH2O_SCPF','FATES_TRAN_SCPF',
'FATES_SAPFLOW_SCPF','FATES_ITERH1_SCPF','FATES_ATH_SCPF','FATES_TTH_SCPF',
'FATES_STH_SCPF','FATES_LTH_SCPF','FATES_AWP_SCPF','FATES_BTRAN_SCPF',
'FATES_ROOTWGT_SOILVWC_SI','FATES_ROOTWGT_SOILVWCSAT_SI',
'FATES_ROOTWGT_SOILMATPOT_SI','FATES_SOILMATPOT_SL','FATES_SOILVWC_SL','FATES_SOILVWCSAT_SL',
'FATES_ROOTUPTAKE_SI','FATES_ROOTUPTAKE_SL','FATES_ROOTUPTAKE0_SCPF','FATES_ROOTUPTAKE10_SCPF',
'FATES_ROOTUPTAKE50_SCPF','FATES_ROOTUPTAKE100_SCPF'
