 use_excess_ice = .true.
 use_excess_ice_streams = .true.
