 use_matrixcn = .false.
 use_soil_matrixcn = .true.
