! Turn FATES-NOCOMP mode on
use_fates_nocomp = .true.
