flanduse_timeseries = '$DIN_LOC_ROOT/lnd/clm2/surfdata_map/landuse.timeseries_4x5_hist_16pfts_Irrig_CMIP6_simyr1850-2015_c190214.nc
get_do_harvest = .true.
