 fsurdat = "$DIN_LOC_ROOT/lnd/clm2/surfdata_map/release-clm5.0.24/surfdata_0.9x1.25_hist_78pfts_TRENDY_simyr1700_c190814.nc"
 flanduse_timeseries = "$DIN_LOC_ROOT/lnd/clm2/surfdata_map/release-clm5.0.24/landuse.timeseries_0.9x1.25_hist_78pfts_TRENDY_simyr1700-2018_c190814.nc"
 stream_fldfilename_ndep = '/glade/p/cgd/tss/people/dll/TRENDY2019_Forcing/Ndep/TRENDY2019_Ndep_Monthly_c190821.nc'
 ndep_varlist = 'NDEP_month'
