enable_water_tracer_consistency_checks = .true.
