!finidat = '$DIN_LOC_ROOT/lnd/clm2/initdata_map/iclm45fates-finit-s1.4.0-a3.0.0-f45.clm2.r.0111-01-01-00000.nc'
hist_mfilt        = 365
hist_nhtfrq       = -24
hist_empty_htapes = .false.
fates_spitfire_mode = 1
fates_history_dimlevel = 2,2
use_fates_tree_damage = .true.
hist_ndens = 1
hist_all_htapes = .true.
