! FATES LandUse using the CTSM landuse timeseries file for the transitions
! Turn off transient lakes and urban right now, until this is handled in
! the build-namelist
!    See:    https://github.com/ESCOMP/CTSM/issues/1617
fates_harvest_mode = 'landuse_timeseries'
do_transient_lakes = .false.
do_transient_urban = .false.
