fates_harvest_mode = 'landuse_timeseries'
