flanduse_timeseries = '$DIN_LOC_ROOTlnd/clm2/surfdata_esmf/ctsm5.2.0/landuse.timeseries_10x15_hist_78_CMIP6_1850-2000_c230517.nc'
do_harvest = .true.
