flanduse_timeseries = '$DIN_LOC_ROOT/lnd/clm2/surfdata_esmf/ctsm5.2.0/landuse.timeseries_4x5_hist_16_CMIP6_1850-2015_c230620.nc'
do_harvest = .true.
