 reseed_dead_plants = .true.
 reset_snow = .true.
