calc_human_stress_indices = 'ALL'
hist_master_list_file = .true.

hist_fincl3 = 'GSSUN', 'GSSHA', 'FSDSND', 'FSRND', 'FSRSFND', 'SSRE_FSRND',
              'FSDSVD', 'FSDSVI', 'FSRVD', 'FSRSFVD', 'SSRE_FSRVD'
hist_avgflag_pertape(3) = 'L43200'
