
hist_mfilt        = 12
hist_nhtfrq       = 0