fsurdat = '/glade/p/cesmdata/cseg/inputdata/lnd/clm2/surfdata_map/release-clm5.0.30/surfdata_C96_hist_78pfts_CMIP6_simyr1850_c200317.nc'
flanduse_timeseries = '/glade/p/cesmdata/cseg/inputdata/lnd/clm2/surfdata_map/release-clm5.0.30/landuse.timeseries_C96_SSP5-8.5_78pfts_CMIP6_simyr1850-2100_c200317.nc'
