use_lch4 = .false.
hist_master_list_file = .true.
