use_lch4 = .false.
hist_fields_list_file = .true.
