hist_empty_htapes = .false.
fates_parteh_mode = 2