n_dom_pfts = 2
check_dynpft_consistency = .false.
