use_fates_sp = .true.
use_fates_nocomp = .true.