use_fates_sp = .true.
fates_spitfire_mode = 0
