calc_human_stress_indices = 'ALL'
hist_all_fields = .true.
hist_wrtch4diag = .true.
