calc_human_stress_indices = 'ALL'
hist_all_fields = .true.
