!----------------------------------------------------------------------------------
! Users should add all user specific namelist changes below in the form of 
! namelist_var = new_namelist_value 
!
! EXCEPTIONS: 
! Set use_cndv           by the compset you use and the CLM_BLDNML_OPTS -dynamic_vegetation setting
! Set use_vichydro       by the compset you use and the CLM_BLDNML_OPTS -vichydro           setting
! Set use_cn             by the compset you use and CLM_BLDNML_OPTS -bgc  setting
! Set use_crop           by the compset you use and CLM_BLDNML_OPTS -crop setting
! Set spinup_state       by the CLM_BLDNML_OPTS -bgc_spinup      setting
! Set irrigate           by the CLM_BLDNML_OPTS -irrig .true.    setting
! Set co2_ppmv           with CCSM_CO2_PPMV                      option
! Set dtime              with L_NCPL                             option
! Set fatmlndfrc         with LND_DOMAIN_PATH/LND_DOMAIN_FILE    options
! Set finidat            with RUN_REFCASE/RUN_REFDATE/RUN_REFTOD options for hybrid or branch cases
!                        (includes $inst_string for multi-ensemble cases)
!                        or with CLM_FORCE_COLDSTART to do a cold start
!                        or set it with an explicit filename here.
! Set maxpatch_glcmec    with GLC_NEC                            option
! Set glc_do_dynglacier  with GLC_TWO_WAY_COUPLING               env variable
!----------------------------------------------------------------------------------

fsurdat = '/glade/p/cesmdata/cseg/inputdata/lnd/clm2/surfdata_map/surfdata_1x1_numaIA_78pfts_CMIP6_simyr1850_c170917.nc'
! hist_fincl2 = 'NPP', 'AGNPP','GPP','AR','BGNPP','NEE','HR','LAISUN','LAISHA','LEAFC','LEAFC_STORAGE','LEAFC_XFER','LIVESTEMC','LIVESTEMC_STORAGE','LIVESTEMC_XFER','DEADSTEMC','DEADSTEMC_STORAGE','DEADSTEMC_XFER','FROOTC','FROOTC_STORAGE','FROOTC_XFER','LIVECROOTC','LIVECROOTC_STORAGE','LIVECROOTC_XFER','DEADCROOTC','DEADCROOTC_STORAGE','DEADCROOTC_XFER','LEAFN','LEAFN_STORAGE','LEAFN_XFER','LIVESTEMN','LIVESTEMN_STORAGE','LIVESTEMN_XFER','DEADSTEMN','DEADSTEMN_STORAGE','DEADSTEMN_XFER','FROOTN','FROOTN_STORAGE','FROOTN_XFER','LIVECROOTN','LIVECROOTN_STORAGE','LIVECROOTN_XFER','DEADCROOTN','DEADCROOTN_STORAGE','DEADCROOTN_XFER','GRAINC','GRAINN'
! hist_dov2xy = .true., .false.
! hist_nhtfrq = 0, 0
! hist_mfilt  = 1, 1
!finidat = '1x1ptnumaIA_test_crop.clm2.r.0003-01-01-00000.nc'
