cropcals_rx = .false.
cropcals_rx_adapt = .true.
stream_gdd20_seasons = .true.
flush_gdd20 = .true.
!TODO SSR: Try without this once you have half-degree inputs
allow_invalid_gdd20_season_inputs = .true.
