 use_flexibleCN = .true.
 use_luna = .false.
 use_fun = .true.

